Version 4
SHEET 1 880 680
WIRE 144 16 96 16
WIRE 288 16 224 16
WIRE 400 80 176 80
WIRE 592 80 480 80
WIRE 176 112 176 80
WIRE 592 112 592 80
WIRE -112 128 -48 64
WIRE -112 128 -272 128
WIRE 96 128 96 16
WIRE 96 128 32 64
WIRE 144 128 96 128
WIRE 288 144 288 16
WIRE 288 144 208 144
WIRE 320 144 288 144
WIRE -16 160 -80 160
WIRE 112 160 64 160
WIRE 144 160 112 160
WIRE -272 176 -272 128
WIRE -80 176 -80 160
WIRE 112 192 112 160
WIRE 176 224 176 176
WIRE 400 224 176 224
WIRE 592 224 480 224
WIRE 592 256 592 224
WIRE -272 320 -272 256
WIRE -80 320 -80 256
WIRE -80 320 -272 320
WIRE 112 320 112 272
WIRE 112 320 -80 320
WIRE -80 352 -80 320
FLAG 592 112 0
FLAG 592 256 0
FLAG -80 352 0
FLAG 400 144 0
SYMBOL res 240 0 R90
WINDOW 0 0 56 VBottom 2
WINDOW 3 32 56 VTop 2
SYMATTR InstName Rf1
SYMATTR Value 100k
SYMBOL voltage -272 160 R0
WINDOW 123 0 0 Left 0
WINDOW 39 0 0 Left 0
WINDOW 3 24 44 Left 2
SYMATTR InstName Vin1
SYMATTR Value 6
SYMBOL voltage 384 80 R270
WINDOW 0 32 56 VTop 2
WINDOW 3 -32 56 VBottom 2
WINDOW 123 0 0 Left 0
WINDOW 39 0 0 Left 0
SYMATTR InstName V1
SYMATTR Value 12
SYMBOL voltage 496 224 R90
WINDOW 0 -32 56 VBottom 2
WINDOW 3 32 56 VTop 2
WINDOW 123 0 0 Left 0
WINDOW 39 0 0 Left 0
SYMATTR InstName V2
SYMATTR Value 12
SYMBOL OpAmps\\OP07 176 80 R0
SYMATTR InstName U1
SYMBOL res 48 48 R90
WINDOW 0 0 56 VBottom 2
WINDOW 3 32 56 VTop 2
SYMATTR InstName R1
SYMATTR Value 10k
SYMBOL res 96 176 R0
SYMATTR InstName R2
SYMATTR Value 100k
SYMBOL res 80 144 R90
WINDOW 0 0 56 VBottom 2
WINDOW 3 32 56 VTop 2
SYMATTR InstName R3
SYMATTR Value 10k
SYMBOL voltage -80 160 R0
WINDOW 123 0 0 Left 0
WINDOW 39 0 0 Left 0
WINDOW 3 24 44 Left 2
SYMATTR InstName Vin2
SYMATTR Value 5
SYMBOL res 416 128 R90
WINDOW 0 0 56 VBottom 2
WINDOW 3 32 56 VTop 2
SYMATTR InstName R4
SYMATTR Value 1k
TEXT -304 312 Left 2 !;op
TEXT -306 376 Left 2 !.tran 4ms
