Version 4
SHEET 1 880 1124
WIRE 208 112 208 96
WIRE -64 128 -192 128
WIRE 64 128 16 128
WIRE 176 128 96 128
WIRE 304 144 240 144
WIRE 416 144 304 144
WIRE 64 160 64 128
WIRE 176 160 64 160
WIRE 656 192 576 192
WIRE 816 192 736 192
WIRE 208 208 208 176
WIRE 96 352 96 128
WIRE 176 352 96 352
WIRE 304 352 304 144
WIRE 304 352 256 352
WIRE 656 352 656 336
WIRE 416 368 416 144
WIRE 576 368 576 192
WIRE 576 368 496 368
WIRE 624 368 576 368
WIRE 816 384 816 192
WIRE 816 384 688 384
WIRE 864 384 816 384
WIRE 624 400 560 400
WIRE 656 448 656 416
WIRE 560 464 560 400
WIRE 560 464 496 464
WIRE 96 528 96 352
WIRE 560 576 560 464
WIRE 96 688 96 608
WIRE 176 688 96 688
WIRE 336 688 256 688
WIRE 560 688 560 656
WIRE 176 848 176 832
WIRE 96 864 96 688
WIRE 144 864 96 864
WIRE 336 880 336 688
WIRE 336 880 208 880
WIRE 416 880 416 464
WIRE 416 880 336 880
WIRE -64 896 -192 896
WIRE 144 896 16 896
WIRE 176 944 176 912
FLAG 208 16 0
FLAG 208 288 0
FLAG 656 256 0
FLAG 656 528 0
FLAG 176 752 0
FLAG 176 1024 0
FLAG -192 896 0
FLAG 560 688 0
FLAG -192 128 0
SYMBOL OpAmps\\OP07 208 80 R0
SYMATTR InstName U1
SYMBOL voltage 208 192 R0
WINDOW 123 0 0 Left 0
WINDOW 39 0 0 Left 0
SYMATTR InstName V1
SYMATTR Value -12
SYMBOL voltage 208 112 R180
WINDOW 0 24 96 Left 2
WINDOW 3 24 16 Left 2
WINDOW 123 0 0 Left 0
WINDOW 39 0 0 Left 0
SYMATTR InstName V2
SYMATTR Value 12
SYMBOL res 512 352 R90
WINDOW 0 0 56 VBottom 2
WINDOW 3 32 56 VTop 2
SYMATTR InstName R5
SYMATTR Value 1k
SYMBOL OpAmps\\OP07 656 320 R0
SYMATTR InstName U2
SYMBOL voltage 656 432 R0
WINDOW 123 0 0 Left 0
WINDOW 39 0 0 Left 0
SYMATTR InstName V3
SYMATTR Value -12
SYMBOL voltage 656 352 R180
WINDOW 0 24 96 Left 2
WINDOW 3 24 16 Left 2
WINDOW 123 0 0 Left 0
WINDOW 39 0 0 Left 0
SYMATTR InstName V4
SYMATTR Value 12
SYMBOL res 272 336 R90
WINDOW 0 0 56 VBottom 2
WINDOW 3 32 56 VTop 2
SYMATTR InstName R3
SYMATTR Value 1k
SYMBOL res 752 176 R90
WINDOW 0 0 56 VBottom 2
WINDOW 3 32 56 VTop 2
SYMATTR InstName R7
SYMATTR Value 1k
SYMBOL res 512 448 R90
WINDOW 0 0 56 VBottom 2
WINDOW 3 32 56 VTop 2
SYMATTR InstName R6
SYMATTR Value 1k
SYMBOL voltage -80 128 R270
WINDOW 123 0 0 Left 0
WINDOW 39 0 0 Left 0
SYMATTR InstName V5
SYMATTR Value SINE(0 0.005 1k)
SYMBOL res 112 624 R180
WINDOW 0 36 76 Left 2
WINDOW 3 36 40 Left 2
SYMATTR InstName R1
SYMATTR Value 1k
SYMBOL OpAmps\\OP07 176 816 R0
SYMATTR InstName U3
SYMBOL voltage 176 928 R0
WINDOW 123 0 0 Left 0
WINDOW 39 0 0 Left 0
SYMATTR InstName V6
SYMATTR Value -12
SYMBOL voltage 176 848 R180
WINDOW 0 24 96 Left 2
WINDOW 3 24 16 Left 2
WINDOW 123 0 0 Left 0
WINDOW 39 0 0 Left 0
SYMATTR InstName V7
SYMATTR Value 12
SYMBOL res 272 672 R90
WINDOW 0 0 56 VBottom 2
WINDOW 3 32 56 VTop 2
SYMATTR InstName R4
SYMATTR Value 1k
SYMBOL res 576 672 R180
WINDOW 0 36 76 Left 2
WINDOW 3 36 40 Left 2
SYMATTR InstName R2
SYMATTR Value 1k
SYMBOL voltage 32 896 R90
WINDOW 123 0 0 Left 0
WINDOW 39 0 0 Left 0
SYMATTR InstName V9
SYMATTR Value SINE(0 0.005 1k)
TEXT -272 456 Left 2 !.tran 10m
TEXT 384 48 Left 2 ;Q6. Instrumentation amplifier
