Version 4
SHEET 1 2500 680
WIRE 1392 -320 1312 -320
WIRE 1552 -320 1472 -320
WIRE 1712 -320 1552 -320
WIRE 1920 -320 1792 -320
WIRE 2032 -320 1920 -320
WIRE 2192 -320 2112 -320
WIRE 64 -288 -16 -288
WIRE 272 -288 144 -288
WIRE 1552 -240 1552 -320
WIRE -16 -176 -16 -288
WIRE 16 -176 -16 -176
WIRE 144 -176 80 -176
WIRE 1616 -160 1392 -160
WIRE 1808 -160 1696 -160
WIRE 2288 -144 2064 -144
WIRE 2480 -144 2368 -144
WIRE 288 -128 64 -128
WIRE 480 -128 368 -128
WIRE 1392 -128 1392 -160
WIRE 1808 -128 1808 -160
WIRE 1168 -112 1104 -112
WIRE 1312 -112 1312 -320
WIRE 1312 -112 1248 -112
WIRE 1360 -112 1312 -112
WIRE 2064 -112 2064 -144
WIRE 2480 -112 2480 -144
WIRE 64 -96 64 -128
WIRE 480 -96 480 -128
WIRE 1552 -96 1552 -176
WIRE 1552 -96 1424 -96
WIRE 1920 -96 1920 -320
WIRE 2032 -96 1920 -96
WIRE -160 -80 -224 -80
WIRE -16 -80 -16 -176
WIRE -16 -80 -80 -80
WIRE 32 -80 -16 -80
WIRE 1104 -80 1104 -112
WIRE 1360 -80 1328 -80
WIRE 2192 -80 2192 -320
WIRE 2192 -80 2096 -80
WIRE 2240 -80 2192 -80
WIRE 144 -64 144 -176
WIRE 144 -64 96 -64
WIRE 160 -64 144 -64
WIRE 272 -64 272 -288
WIRE 272 -64 224 -64
WIRE 304 -64 272 -64
WIRE 2032 -64 2000 -64
WIRE -224 -48 -224 -80
WIRE 32 -48 0 -48
WIRE 1328 -32 1328 -80
WIRE 1392 -16 1392 -64
WIRE 1616 -16 1392 -16
WIRE 1808 -16 1696 -16
WIRE 0 0 0 -48
WIRE 2064 0 2064 -48
WIRE 2288 0 2064 0
WIRE 2480 0 2368 0
WIRE 64 16 64 -32
WIRE 288 16 64 16
WIRE 480 16 368 16
WIRE 1808 16 1808 -16
WIRE 2480 32 2480 0
WIRE 480 48 480 16
WIRE 1104 48 1104 0
WIRE 1552 48 1552 -96
WIRE -224 80 -224 32
WIRE 1552 112 1552 96
WIRE 1312 176 1312 -112
WIRE 1408 176 1312 176
WIRE 1552 176 1552 112
WIRE 1552 176 1488 176
WIRE 2000 176 2000 -64
WIRE 2000 176 1552 176
FLAG -224 80 0
FLAG 480 -96 0
FLAG 480 48 0
FLAG 0 0 0
FLAG 1104 48 0
FLAG 1808 -128 0
FLAG 1808 16 0
FLAG 1328 -32 0
FLAG 2480 -112 0
FLAG 2480 32 0
SYMBOL voltage 272 -128 R270
WINDOW 0 32 56 VTop 2
WINDOW 3 -32 56 VBottom 2
WINDOW 123 0 0 Left 0
WINDOW 39 0 0 Left 0
SYMATTR InstName V1
SYMATTR Value 12
SYMBOL voltage 384 16 R90
WINDOW 0 -32 56 VBottom 2
WINDOW 3 32 56 VTop 2
WINDOW 123 0 0 Left 0
WINDOW 39 0 0 Left 0
SYMATTR InstName V2
SYMATTR Value 12
SYMBOL res -64 -96 R90
WINDOW 0 0 56 VBottom 2
WINDOW 3 32 56 VTop 2
SYMATTR InstName R1
SYMATTR Value 1k
SYMBOL OpAmps\\OP747 64 -128 R0
SYMATTR InstName U1
SYMBOL voltage -224 -64 R0
WINDOW 123 0 0 Left 0
WINDOW 39 0 0 Left 0
SYMATTR InstName Vin1
SYMATTR Value SINE(0 1 1k)
SYMBOL res 160 -304 R90
WINDOW 0 0 56 VBottom 2
WINDOW 3 32 56 VTop 2
SYMATTR InstName R2
SYMATTR Value 10k
SYMBOL diode 160 -48 R270
WINDOW 0 32 32 VTop 2
WINDOW 3 0 32 VBottom 2
SYMATTR InstName D1
SYMBOL diode 16 -160 R270
WINDOW 0 32 32 VTop 2
WINDOW 3 0 32 VBottom 2
SYMATTR InstName D2
SYMBOL voltage 1600 -160 R270
WINDOW 0 32 56 VTop 2
WINDOW 3 -32 56 VBottom 2
WINDOW 123 0 0 Left 0
WINDOW 39 0 0 Left 0
SYMATTR InstName V3
SYMATTR Value 12
SYMBOL voltage 1712 -16 R90
WINDOW 0 -32 56 VBottom 2
WINDOW 3 32 56 VTop 2
WINDOW 123 0 0 Left 0
WINDOW 39 0 0 Left 0
SYMATTR InstName V4
SYMATTR Value 12
SYMBOL res 1264 -128 R90
WINDOW 0 0 56 VBottom 2
WINDOW 3 32 56 VTop 2
SYMATTR InstName R3
SYMATTR Value 1k
SYMBOL OpAmps\\OP747 1392 -160 R0
SYMATTR InstName U2
SYMBOL voltage 1104 -96 R0
WINDOW 123 0 0 Left 0
WINDOW 39 0 0 Left 0
SYMATTR InstName Vin2
SYMATTR Value SINE(0 1 1k)
SYMBOL res 1488 -336 R90
WINDOW 0 0 56 VBottom 2
WINDOW 3 32 56 VTop 2
SYMATTR InstName R4
SYMATTR Value 1k
SYMBOL diode 1536 48 R0
SYMATTR InstName D3
SYMBOL diode 1536 -240 R0
SYMATTR InstName D4
SYMBOL res 1504 160 R90
WINDOW 0 0 56 VBottom 2
WINDOW 3 32 56 VTop 2
SYMATTR InstName R5
SYMATTR Value 1k
SYMBOL voltage 2384 0 R90
WINDOW 0 -32 56 VBottom 2
WINDOW 3 32 56 VTop 2
WINDOW 123 0 0 Left 0
WINDOW 39 0 0 Left 0
SYMATTR InstName V5
SYMATTR Value 12
SYMBOL OpAmps\\OP747 2064 -144 R0
SYMATTR InstName U3
SYMBOL voltage 2272 -144 R270
WINDOW 0 32 56 VTop 2
WINDOW 3 -32 56 VBottom 2
WINDOW 123 0 0 Left 0
WINDOW 39 0 0 Left 0
SYMATTR InstName V6
SYMATTR Value 12
SYMBOL res 1808 -336 R90
WINDOW 0 0 56 VBottom 2
WINDOW 3 32 56 VTop 2
SYMATTR InstName R6
SYMATTR Value 1k
SYMBOL res 2128 -336 R90
WINDOW 0 0 56 VBottom 2
WINDOW 3 32 56 VTop 2
SYMATTR InstName R7
SYMATTR Value 1k
TEXT -256 104 Left 2 !;op
TEXT -264 136 Left 2 !.tran 0 4ms 0
TEXT 1512 -392 Left 2 ;Precision Full-wave Rectifier
TEXT -24 -344 Left 2 ;Precision half-wave Rectifier
TEXT 1072 72 Left 2 !;op
TEXT 1064 104 Left 2 !;tran 0 4ms 0
