Version 4
SHEET 1 2580 680
WIRE 16 -64 -64 -64
WIRE 208 -64 96 -64
WIRE 2176 -64 2080 -64
WIRE 2304 -64 2240 -64
WIRE 272 48 48 48
WIRE 464 48 352 48
WIRE 1856 48 1632 48
WIRE 2048 48 1936 48
WIRE 2368 64 2144 64
WIRE 2560 64 2448 64
WIRE 48 80 48 48
WIRE 464 80 464 48
WIRE 1632 80 1632 48
WIRE 2048 80 2048 48
WIRE -64 96 -64 -64
WIRE -64 96 -176 96
WIRE 16 96 -64 96
WIRE 1600 96 1488 96
WIRE 2144 96 2144 64
WIRE 2560 96 2560 64
WIRE -176 112 -176 96
WIRE 208 112 208 -64
WIRE 208 112 80 112
WIRE 1792 112 1664 112
WIRE 1952 112 1792 112
WIRE 2080 112 2080 -64
WIRE 2080 112 2032 112
WIRE 2112 112 2080 112
WIRE 16 128 -16 128
WIRE 1600 128 1536 128
WIRE 2304 128 2304 -64
WIRE 2304 128 2176 128
WIRE 2352 128 2304 128
WIRE 2112 144 2048 144
WIRE 48 192 48 144
WIRE 272 192 48 192
WIRE 464 192 352 192
WIRE 1632 192 1632 144
WIRE 1856 192 1632 192
WIRE 2048 192 2048 144
WIRE 2048 192 1936 192
WIRE -176 208 -176 176
WIRE 2144 208 2144 160
WIRE 2368 208 2144 208
WIRE 2560 208 2448 208
WIRE 464 224 464 192
WIRE 2048 224 2048 192
WIRE 208 240 208 112
WIRE 2560 240 2560 208
WIRE -16 368 -16 128
WIRE 208 368 208 320
WIRE 208 368 -16 368
WIRE 1536 384 1536 128
WIRE 1600 384 1536 384
WIRE 1792 384 1792 112
WIRE 1792 384 1680 384
WIRE 208 432 208 368
WIRE 1536 464 1536 384
WIRE 208 528 208 512
WIRE 1536 576 1536 544
WIRE 2304 576 2304 128
WIRE 2304 576 1536 576
FLAG 464 80 0
FLAG 464 224 0
FLAG -176 208 0
FLAG 208 528 0
FLAG 2048 80 0
FLAG 2048 224 0
FLAG 1488 96 0
FLAG 2560 96 0
FLAG 2560 240 0
SYMBOL voltage 256 48 R270
WINDOW 0 32 56 VTop 2
WINDOW 3 -32 56 VBottom 2
WINDOW 123 0 0 Left 0
WINDOW 39 0 0 Left 0
SYMATTR InstName V1
SYMATTR Value 12
SYMBOL voltage 368 192 R90
WINDOW 0 -32 56 VBottom 2
WINDOW 3 32 56 VTop 2
WINDOW 123 0 0 Left 0
WINDOW 39 0 0 Left 0
SYMATTR InstName V2
SYMATTR Value 12
SYMBOL OpAmps\\OP747 48 48 R0
SYMATTR InstName U1
SYMBOL cap -192 112 R0
SYMATTR InstName C1
SYMATTR Value 0.1µ
SYMBOL res 112 -80 R90
WINDOW 0 0 56 VBottom 2
WINDOW 3 32 56 VTop 2
SYMATTR InstName R1
SYMATTR Value 4.7k
SYMBOL res 192 224 R0
SYMATTR InstName R2
SYMATTR Value 10k
SYMBOL res 192 416 R0
SYMATTR InstName R3
SYMATTR Value 10k
SYMBOL voltage 1952 192 R90
WINDOW 0 -32 56 VBottom 2
WINDOW 3 32 56 VTop 2
WINDOW 123 0 0 Left 0
WINDOW 39 0 0 Left 0
SYMATTR InstName V3
SYMATTR Value 12
SYMBOL OpAmps\\OP747 1632 48 R0
SYMATTR InstName U2
SYMBOL res 1696 368 R90
WINDOW 0 0 56 VBottom 2
WINDOW 3 32 56 VTop 2
SYMATTR InstName R4
SYMATTR Value 4.7k
SYMBOL res 1552 560 R180
WINDOW 0 36 76 Left 2
WINDOW 3 36 40 Left 2
SYMATTR InstName R5
SYMATTR Value 1k
SYMBOL res 2048 96 R90
WINDOW 0 0 56 VBottom 2
WINDOW 3 32 56 VTop 2
SYMATTR InstName R6
SYMATTR Value 12k
SYMBOL voltage 1840 48 R270
WINDOW 0 32 56 VTop 2
WINDOW 3 -32 56 VBottom 2
WINDOW 123 0 0 Left 0
WINDOW 39 0 0 Left 0
SYMATTR InstName V4
SYMATTR Value 12
SYMBOL voltage 2464 208 R90
WINDOW 0 -32 56 VBottom 2
WINDOW 3 32 56 VTop 2
WINDOW 123 0 0 Left 0
WINDOW 39 0 0 Left 0
SYMATTR InstName V5
SYMATTR Value 12
SYMBOL OpAmps\\OP747 2144 64 R0
SYMATTR InstName U3
SYMBOL voltage 2352 64 R270
WINDOW 0 32 56 VTop 2
WINDOW 3 -32 56 VBottom 2
WINDOW 123 0 0 Left 0
WINDOW 39 0 0 Left 0
SYMATTR InstName V6
SYMATTR Value 12
SYMBOL cap 2240 -80 R90
WINDOW 0 0 32 VBottom 2
WINDOW 3 32 32 VTop 2
SYMATTR InstName C2
SYMATTR Value 0.1µ
TEXT -200 552 Left 2 !.tran 4ms
TEXT 40 -160 Left 2 ;Square Wave
TEXT 1824 -64 Left 2 ;Triangular Wave
